Version 4
SHEET 1 1472 680
WIRE 208 -144 -160 -144
WIRE -160 -48 -160 -144
WIRE 208 -32 208 -144
WIRE 160 48 48 48
WIRE 48 112 48 48
WIRE 48 112 -80 112
WIRE 64 112 48 112
WIRE 96 112 64 112
WIRE 208 112 208 64
WIRE 208 112 160 112
WIRE 528 112 208 112
WIRE 656 112 528 112
WIRE 1024 112 752 112
WIRE 1408 112 1280 112
WIRE -80 144 -80 112
WIRE 64 176 64 112
WIRE 1408 208 1408 112
WIRE 528 240 528 112
WIRE 672 240 672 160
WIRE 672 240 528 240
WIRE -160 400 -160 32
WIRE -80 400 -80 224
WIRE -80 400 -160 400
WIRE 64 400 64 256
WIRE 64 400 -80 400
WIRE 144 400 64 400
WIRE 1152 400 1152 208
WIRE 1152 400 144 400
WIRE 1408 400 1408 288
WIRE 1408 400 1152 400
FLAG 144 400 0
DATAFLAG 320 112 ""
DATAFLAG -48 112 ""
DATAFLAG -48 112 ""
DATAFLAG 112 48 ""
DATAFLAG 64 160 ""
DATAFLAG 64 160 ""
DATAFLAG 1360 112 ""
DATAFLAG 1360 112 ""
DATAFLAG 176 -144 "Id(M1)"
DATAFLAG 208 -96 ""
DATAFLAG 208 -96 ""
DATAFLAG 800 112 "Is(M2)"
SYMBOL pmos 160 -32 R0
SYMATTR InstName M1
SYMATTR Value Si9433DY
SYMBOL voltage -80 128 R0
WINDOW 123 0 0 Left 2
WINDOW 39 0 0 Left 2
SYMATTR InstName V1
SYMATTR Value 0
SYMBOL voltage -160 -64 R0
WINDOW 123 0 0 Left 2
WINDOW 39 0 0 Left 2
SYMATTR InstName V2
SYMATTR Value 3.7
SYMBOL res 48 160 R0
SYMATTR InstName R2
SYMATTR Value 10k
SYMBOL diode 96 128 R270
WINDOW 0 32 32 VTop 2
WINDOW 3 0 32 VBottom 2
SYMATTR InstName D1
SYMBOL PowerProducts\\LT1086-3.3 1152 112 R0
SYMATTR InstName U1
SYMBOL res 1392 192 R0
SYMATTR InstName R1
SYMATTR Value 10k
SYMBOL pmos 752 160 M270
SYMATTR InstName M2
SYMATTR Value Si9433DY
TEXT -114 424 Left 2 !.op
